*Heading
** Job name: mesh10 Model name: 8_cells_10_elements_tile
** Generated by: Abaqus/CAE 2019
*Preprint, echo=NO, model=NO, history=NO, contact=NO
**
** PARTS
**
*Part, name=Part-1
*Node
      1,       0.9375,           1.
      2,       0.9375,       0.9375
      3,           1.,       0.9375
      4,           1.,           1.
      5,        0.875,           1.
      6,        0.875,       0.9375
      7,       0.9375,        0.875
      8,           1.,        0.875
      9,       0.8125,           1.
     10,       0.8125,       0.9375
     11,        0.875,        0.875
     12,       0.9375,       0.8125
     13,           1.,       0.8125
     14,         0.75,           1.
     15,         0.75,       0.9375
     16,       0.8125,        0.875
     17,        0.875,       0.8125
     18,       0.9375,         0.75
     19,           1.,         0.75
     20,       0.6875,           1.
** ... 25901 like lines cut
*Element, type=DC2D4
  1,    1,  290, 5186,  325
  2,  290,  291, 5187, 5186
  3,  291,  292, 5188, 5187
  4,  292,  293, 5189, 5188
  5,  293,  294, 5190, 5189
  6,  294,  295, 5191, 5190
  7,  295,  296, 5192, 5191
  8,  296,  297, 5193, 5192
  9,  297,  298, 5194, 5193
 10,  298,    2,  299, 5194
 11,  325, 5186, 5195,  324
 12, 5186, 5187, 5196, 5195
 13, 5187, 5188, 5197, 5196
 14, 5188, 5189, 5198, 5197
 15, 5189, 5190, 5199, 5198
 16, 5190, 5191, 5200, 5199
 17, 5191, 5192, 5201, 5200
 18, 5192, 5193, 5202, 5201
 19, 5193, 5194, 5203, 5202
 20, 5194,  299,  300, 5203
** ... 25580 like lines cut
*Nset, nset=phase1
     1,     2,     3,     5,     6,     7,     8,     9,    10,    11,    12,    13,    14,    15,    16,    17
    18,    19,    20,    21,    22,    23,    24,    25,    26,    27,    28,    29,    30,    31,    32,    33
    34,    35,    36,    37,    38,    39,    40,    41,    42,    43,    44,    45,    46,    47,    48,    49
    50,    51,    52,    53,    54,    55,    56,    57,    58,    59,    60,    61,    62,    63,    64,    65
    66,    67,    68,    69,    70,    71,    72,    73,    74,    75,    76,    77,    78,    79,    80,    81
    82,    83,    84,    85,    86,    87,    88,    89,    90,    91,    92,    93,    94,    95,    96,    97
    98,    99,   100,   101,   102,   103,   104,   105,   106,   107,   108,   109,   110,   111,   112,   113
   114,   115,   116,   117,   118,   119,   120,   121,   122,   123,   124,   125,   126,   127,   128,   129
   130,   131,   132,   133,   134,   135,   136,   137,   138,   139,   140,   141,   142,   143,   144,   145
   146,   147,   148,   149,   150,   151,   152,   153,   154,   155,   156,   157,   158,   159,   160,   161
   162,   163,   164,   165,   166,   167,   168,   169,   170,   171,   172,   173,   174,   175,   176,   177
   178,   179,   180,   181,   182,   183,   184,   185,   186,   187,   188,   189,   190,   191,   192,   193
   194,   195,   196,   197,   198,   199,   200,   201,   202,   203,   204,   205,   206,   207,   208,   209
   210,   211,   212,   213,   214,   215,   216,   217,   218,   219,   220,   221,   222,   223,   224,   225
   226,   227,   228,   229,   230,   231,   232,   233,   234,   235,   236,   237,   238,   239,   240,   241
   242,   243,   244,   245,   246,   247,   248,   249,   250,   251,   252,   253,   254,   255,   256,   257
   258,   259,   260,   261,   262,   263,   264,   265,   266,   267,   268,   269,   270,   271,   272,   273
   274,   275,   276,   277,   278,   279,   280,   282,   283,   284,   285,   286,   287,   288,   289,   290
   291,   292,   293,   294,   295,   296,   297,   298,   299,   300,   301,   302,   303,   304,   305,   306
   307,   326,   327,   328,   329,   330,   331,   332,   333,   334,   335,   336,   337,   338,   339,   340
** ... 934 like lines cut
*Elset, elset=phase1
   101,   102,   103,   104,   105,   106,   107,   108,   109,   110,   111,   112,   113,   114,   115,   116
   117,   118,   119,   120,   121,   122,   123,   124,   125,   126,   127,   128,   129,   130,   131,   132
   133,   134,   135,   136,   137,   138,   139,   140,   141,   142,   143,   144,   145,   146,   147,   148
   149,   150,   151,   152,   153,   154,   155,   156,   157,   158,   159,   160,   161,   162,   163,   164
   165,   166,   167,   168,   169,   170,   171,   172,   173,   174,   175,   176,   177,   178,   179,   180
   181,   182,   183,   184,   185,   186,   187,   188,   189,   190,   191,   192,   193,   194,   195,   196
   197,   198,   199,   200,   201,   202,   203,   204,   205,   206,   207,   208,   209,   210,   211,   212
   213,   214,   215,   216,   217,   218,   219,   220,   221,   222,   223,   224,   225,   226,   227,   228
   229,   230,   231,   232,   233,   234,   235,   236,   237,   238,   239,   240,   241,   242,   243,   244
   245,   246,   247,   248,   249,   250,   251,   252,   253,   254,   255,   256,   257,   258,   259,   260
   261,   262,   263,   264,   265,   266,   267,   268,   269,   270,   271,   272,   273,   274,   275,   276
   277,   278,   279,   280,   281,   282,   283,   284,   285,   286,   287,   288,   289,   290,   291,   292
   293,   294,   295,   296,   297,   298,   299,   300,   601,   602,   603,   604,   605,   606,   607,   608
   609,   610,   611,   612,   613,   614,   615,   616,   617,   618,   619,   620,   621,   622,   623,   624
   625,   626,   627,   628,   629,   630,   631,   632,   633,   634,   635,   636,   637,   638,   639,   640
   641,   642,   643,   644,   645,   646,   647,   648,   649,   650,   651,   652,   653,   654,   655,   656
   657,   658,   659,   660,   661,   662,   663,   664,   665,   666,   667,   668,   669,   670,   671,   672
   673,   674,   675,   676,   677,   678,   679,   680,   681,   682,   683,   684,   685,   686,   687,   688
   689,   690,   691,   692,   693,   694,   695,   696,   697,   698,   699,   700,   701,   702,   703,   704
   705,   706,   707,   708,   709,   710,   711,   712,   713,   714,   715,   716,   717,   718,   719,   720
** ... 780 like lines cut
*Nset, nset=phase2
     1,     2,     3,     4,     5,     6,     7,     8,     9,    10,    11,    12,    13,    14,    15,    16
    17,    18,    19,    20,    21,    22,    23,    24,    25,    26,    27,    28,    29,    30,    31,    32
    33,    34,    35,    36,    37,    38,    39,    40,    41,    42,    43,    44,    45,    46,    47,    48
    49,    50,    51,    52,    53,    54,    55,    56,    57,    58,    59,    60,    61,    62,    63,    64
    65,    66,    67,    68,    69,    70,    71,    72,    73,    74,    75,    76,    77,    78,    79,    80
    81,    82,    83,    84,    85,    86,    87,    88,    89,    90,    91,    92,    94,    95,    96,    97
    98,    99,   100,   101,   102,   103,   104,   105,   106,   107,   108,   109,   110,   111,   112,   113
   114,   115,   116,   117,   118,   119,   120,   121,   122,   123,   124,   125,   126,   127,   128,   129
   130,   131,   132,   133,   134,   135,   136,   137,   138,   139,   140,   141,   142,   143,   144,   145
   147,   148,   149,   150,   151,   152,   153,   154,   155,   156,   157,   158,   159,   160,   161,   162
   163,   164,   165,   166,   167,   168,   169,   170,   171,   172,   173,   174,   175,   176,   177,   178
   179,   180,   181,   182,   183,   184,   185,   186,   187,   188,   189,   190,   191,   192,   193,   194
   195,   196,   197,   198,   199,   200,   201,   202,   203,   204,   205,   206,   207,   208,   209,   210
   211,   212,   213,   214,   215,   216,   217,   218,   219,   220,   221,   222,   223,   224,   225,   226
   227,   228,   229,   230,   231,   232,   233,   234,   235,   236,   237,   238,   239,   240,   241,   242
   243,   244,   245,   246,   247,   248,   249,   250,   251,   252,   253,   254,   255,   256,   257,   258
   259,   260,   261,   262,   263,   264,   265,   266,   267,   268,   269,   270,   271,   272,   273,   274
   275,   276,   277,   278,   279,   280,   281,   282,   283,   284,   285,   286,   287,   288,   289,   290
   291,   292,   293,   294,   295,   296,   297,   298,   299,   300,   301,   302,   303,   304,   305,   306
   307,   308,   309,   310,   311,   312,   313,   314,   315,   316,   317,   318,   319,   320,   321,   322
** ... 934 like lines cut
*Elset, elset=phase2
     1,     2,     3,     4,     5,     6,     7,     8,     9,    10,    11,    12,    13,    14,    15,    16
    17,    18,    19,    20,    21,    22,    23,    24,    25,    26,    27,    28,    29,    30,    31,    32
    33,    34,    35,    36,    37,    38,    39,    40,    41,    42,    43,    44,    45,    46,    47,    48
    49,    50,    51,    52,    53,    54,    55,    56,    57,    58,    59,    60,    61,    62,    63,    64
    65,    66,    67,    68,    69,    70,    71,    72,    73,    74,    75,    76,    77,    78,    79,    80
    81,    82,    83,    84,    85,    86,    87,    88,    89,    90,    91,    92,    93,    94,    95,    96
    97,    98,    99,   100,   301,   302,   303,   304,   305,   306,   307,   308,   309,   310,   311,   312
   313,   314,   315,   316,   317,   318,   319,   320,   321,   322,   323,   324,   325,   326,   327,   328
   329,   330,   331,   332,   333,   334,   335,   336,   337,   338,   339,   340,   341,   342,   343,   344
   345,   346,   347,   348,   349,   350,   351,   352,   353,   354,   355,   356,   357,   358,   359,   360
   361,   362,   363,   364,   365,   366,   367,   368,   369,   370,   371,   372,   373,   374,   375,   376
   377,   378,   379,   380,   381,   382,   383,   384,   385,   386,   387,   388,   389,   390,   391,   392
   393,   394,   395,   396,   397,   398,   399,   400,   401,   402,   403,   404,   405,   406,   407,   408
   409,   410,   411,   412,   413,   414,   415,   416,   417,   418,   419,   420,   421,   422,   423,   424
   425,   426,   427,   428,   429,   430,   431,   432,   433,   434,   435,   436,   437,   438,   439,   440
   441,   442,   443,   444,   445,   446,   447,   448,   449,   450,   451,   452,   453,   454,   455,   456
   457,   458,   459,   460,   461,   462,   463,   464,   465,   466,   467,   468,   469,   470,   471,   472
   473,   474,   475,   476,   477,   478,   479,   480,   481,   482,   483,   484,   485,   486,   487,   488
   489,   490,   491,   492,   493,   494,   495,   496,   497,   498,   499,   500,   501,   502,   503,   504
   505,   506,   507,   508,   509,   510,   511,   512,   513,   514,   515,   516,   517,   518,   519,   520
** ... 780 like lines cut
*Nset, nset=boundary
    1,    3,    4,    5,    8,    9,   13,   14,   19,   20,   26,   27,   34,   35,   43,   44
   53,   54,   64,   65,   76,   77,   89,   90,   92,   93,   94,  107,  108,  111,  112,  126
  127,  143,  145,  146,  147,  148,  164,  165,  180,  181,  195,  196,  209,  210,  222,  223
  234,  235,  245,  246,  255,  256,  264,  265,  272,  273,  278,  280,  281,  283,  286,  289
  308,  309,  310,  311,  312,  313,  314,  315,  316,  317,  318,  319,  320,  321,  322,  323
  324,  325,  326,  327,  328,  329,  330,  331,  332,  333,  334,  371,  372,  373,  374,  375
  376,  377,  378,  379,  380,  381,  382,  383,  384,  385,  386,  387,  388,  443,  444,  445
  446,  447,  448,  449,  450,  451,  452,  453,  454,  455,  456,  457,  458,  459,  460,  533
  534,  535,  536,  537,  538,  539,  540,  541,  542,  543,  544,  545,  546,  547,  548,  549
  550,  641,  642,  643,  644,  645,  646,  647,  648,  649,  650,  651,  652,  653,  654,  655
  656,  657,  658,  767,  768,  769,  770,  771,  772,  773,  774,  775,  776,  777,  778,  779
  780,  781,  782,  783,  784,  911,  912,  913,  914,  915,  916,  917,  918,  919,  920,  921
  922,  923,  924,  925,  926,  927,  928, 1073, 1074, 1075, 1076, 1077, 1078, 1079, 1080, 1081
 1082, 1083, 1084, 1085, 1086, 1087, 1088, 1089, 1090, 1253, 1254, 1255, 1256, 1257, 1258, 1259
 1260, 1261, 1262, 1263, 1264, 1265, 1266, 1267, 1268, 1269, 1270, 1451, 1452, 1453, 1454, 1455
 1456, 1457, 1458, 1459, 1460, 1461, 1462, 1463, 1464, 1465, 1466, 1467, 1468, 1667, 1668, 1669
 1670, 1671, 1672, 1673, 1674, 1675, 1694, 1695, 1696, 1697, 1698, 1699, 1700, 1701, 1702, 1703
 1704, 1705, 1706, 1707, 1708, 1709, 1710, 1711, 1712, 1713, 1714, 1715, 1716, 1717, 1718, 1719
 1720, 1937, 1938, 1939, 1940, 1941, 1942, 1943, 1944, 1945, 1946, 1947, 1948, 1949, 1950, 1951
 1952, 1953, 1954, 1991, 1992, 1993, 1994, 1995, 1996, 1997, 1998, 1999, 2000, 2001, 2002, 2003
** ... 20 like lines cut
*Elset, elset=boundary
     1,    11,    21,    31,    41,    51,    61,    71,    81,    91,    92,    93,    94,    95,    96,    97
    98,    99,   100,   110,   120,   130,   140,   150,   160,   170,   180,   190,   200,   201,   211,   221
   231,   241,   251,   261,   271,   281,   291,   310,   320,   330,   340,   350,   360,   370,   380,   390
   400,   501,   511,   521,   531,   541,   551,   561,   571,   581,   591,   610,   620,   630,   640,   650
   660,   670,   680,   690,   700,   901,   911,   921,   931,   941,   951,   961,   971,   981,   991,  1010
  1020,  1030,  1040,  1050,  1060,  1070,  1080,  1090,  1100,  1401,  1411,  1421,  1431,  1441,  1451,  1461
  1471,  1481,  1491,  1510,  1520,  1530,  1540,  1550,  1560,  1570,  1580,  1590,  1600,  2001,  2011,  2021
  2031,  2041,  2051,  2061,  2071,  2081,  2091,  2110,  2120,  2130,  2140,  2150,  2160,  2170,  2180,  2190
  2200,  2701,  2711,  2721,  2731,  2741,  2751,  2761,  2771,  2781,  2791,  2810,  2820,  2830,  2840,  2850
  2860,  2870,  2880,  2890,  2900,  3501,  3511,  3521,  3531,  3541,  3551,  3561,  3571,  3581,  3591,  3610
  3620,  3630,  3640,  3650,  3660,  3670,  3680,  3690,  3700,  4401,  4411,  4421,  4431,  4441,  4451,  4461
  4471,  4481,  4491,  4510,  4520,  4530,  4540,  4550,  4560,  4570,  4580,  4590,  4600,  5401,  5411,  5421
  5431,  5441,  5451,  5461,  5471,  5481,  5491,  5510,  5520,  5530,  5540,  5550,  5560,  5570,  5580,  5590
  5600,  6501,  6511,  6521,  6531,  6541,  6551,  6561,  6571,  6581,  6591,  6601,  6611,  6621,  6631,  6641
  6651,  6661,  6671,  6681,  6691,  6692,  6693,  6694,  6695,  6696,  6697,  6698,  6699,  6700,  6710,  6720
  6730,  6740,  6750,  6760,  6770,  6780,  6790,  6800,  7801,  7811,  7821,  7831,  7841,  7851,  7861,  7871
  7881,  7891,  7910,  7920,  7930,  7940,  7950,  7960,  7970,  7980,  7990,  8000,  8001,  8011,  8021,  8031
  8041,  8051,  8061,  8071,  8081,  8091,  8110,  8120,  8130,  8140,  8150,  8160,  8170,  8180,  8190,  8200
  9301,  9311,  9321,  9331,  9341,  9351,  9361,  9371,  9381,  9391,  9410,  9420,  9430,  9440,  9450,  9460
  9470,  9480,  9490,  9500,  9610,  9620,  9630,  9640,  9650,  9660,  9670,  9680,  9690,  9700, 10901, 10911
** ... 20 like lines cut
*Nset, nset=_G6, internal
     1,     2,     3,     5,     6,     7,     8,     9,    10,    11,    12,    13,    14,    15,    16,    17
    18,    19,    20,    21,    22,    23,    24,    25,    26,    27,    28,    29,    30,    31,    32,    33
    34,    35,    36,    37,    38,    39,    40,    41,    42,    43,    44,    45,    46,    47,    48,    49
    50,    51,    52,    53,    54,    55,    56,    57,    58,    59,    60,    61,    62,    63,    64,    65
    66,    67,    68,    69,    70,    71,    72,    73,    74,    75,    76,    77,    78,    79,    80,    81
    82,    83,    84,    85,    86,    87,    88,    89,    90,    91,    92,    93,    94,    95,    96,    97
    98,    99,   100,   101,   102,   103,   104,   105,   106,   107,   108,   109,   110,   111,   112,   113
   114,   115,   116,   117,   118,   119,   120,   121,   122,   123,   124,   125,   126,   127,   128,   129
   130,   131,   132,   133,   134,   135,   136,   137,   138,   139,   140,   141,   142,   143,   144,   145
   146,   147,   148,   149,   150,   151,   152,   153,   154,   155,   156,   157,   158,   159,   160,   161
   162,   163,   164,   165,   166,   167,   168,   169,   170,   171,   172,   173,   174,   175,   176,   177
   178,   179,   180,   181,   182,   183,   184,   185,   186,   187,   188,   189,   190,   191,   192,   193
   194,   195,   196,   197,   198,   199,   200,   201,   202,   203,   204,   205,   206,   207,   208,   209
   210,   211,   212,   213,   214,   215,   216,   217,   218,   219,   220,   221,   222,   223,   224,   225
   226,   227,   228,   229,   230,   231,   232,   233,   234,   235,   236,   237,   238,   239,   240,   241
   242,   243,   244,   245,   246,   247,   248,   249,   250,   251,   252,   253,   254,   255,   256,   257
   258,   259,   260,   261,   262,   263,   264,   265,   266,   267,   268,   269,   270,   271,   272,   273
   274,   275,   276,   277,   278,   279,   280,   282,   283,   284,   285,   286,   287,   288,   289,   290
   291,   292,   293,   294,   295,   296,   297,   298,   299,   300,   301,   302,   303,   304,   305,   306
   307,   326,   327,   328,   329,   330,   331,   332,   333,   334,   335,   336,   337,   338,   339,   340
** ... 934 like lines cut
*Elset, elset=_G6, internal
   101,   102,   103,   104,   105,   106,   107,   108,   109,   110,   111,   112,   113,   114,   115,   116
   117,   118,   119,   120,   121,   122,   123,   124,   125,   126,   127,   128,   129,   130,   131,   132
   133,   134,   135,   136,   137,   138,   139,   140,   141,   142,   143,   144,   145,   146,   147,   148
   149,   150,   151,   152,   153,   154,   155,   156,   157,   158,   159,   160,   161,   162,   163,   164
   165,   166,   167,   168,   169,   170,   171,   172,   173,   174,   175,   176,   177,   178,   179,   180
   181,   182,   183,   184,   185,   186,   187,   188,   189,   190,   191,   192,   193,   194,   195,   196
   197,   198,   199,   200,   201,   202,   203,   204,   205,   206,   207,   208,   209,   210,   211,   212
   213,   214,   215,   216,   217,   218,   219,   220,   221,   222,   223,   224,   225,   226,   227,   228
   229,   230,   231,   232,   233,   234,   235,   236,   237,   238,   239,   240,   241,   242,   243,   244
   245,   246,   247,   248,   249,   250,   251,   252,   253,   254,   255,   256,   257,   258,   259,   260
   261,   262,   263,   264,   265,   266,   267,   268,   269,   270,   271,   272,   273,   274,   275,   276
   277,   278,   279,   280,   281,   282,   283,   284,   285,   286,   287,   288,   289,   290,   291,   292
   293,   294,   295,   296,   297,   298,   299,   300,   601,   602,   603,   604,   605,   606,   607,   608
   609,   610,   611,   612,   613,   614,   615,   616,   617,   618,   619,   620,   621,   622,   623,   624
   625,   626,   627,   628,   629,   630,   631,   632,   633,   634,   635,   636,   637,   638,   639,   640
   641,   642,   643,   644,   645,   646,   647,   648,   649,   650,   651,   652,   653,   654,   655,   656
   657,   658,   659,   660,   661,   662,   663,   664,   665,   666,   667,   668,   669,   670,   671,   672
   673,   674,   675,   676,   677,   678,   679,   680,   681,   682,   683,   684,   685,   686,   687,   688
   689,   690,   691,   692,   693,   694,   695,   696,   697,   698,   699,   700,   701,   702,   703,   704
   705,   706,   707,   708,   709,   710,   711,   712,   713,   714,   715,   716,   717,   718,   719,   720
** ... 780 like lines cut
*Nset, nset=_G7, internal
     1,     2,     3,     4,     5,     6,     7,     8,     9,    10,    11,    12,    13,    14,    15,    16
    17,    18,    19,    20,    21,    22,    23,    24,    25,    26,    27,    28,    29,    30,    31,    32
    33,    34,    35,    36,    37,    38,    39,    40,    41,    42,    43,    44,    45,    46,    47,    48
    49,    50,    51,    52,    53,    54,    55,    56,    57,    58,    59,    60,    61,    62,    63,    64
    65,    66,    67,    68,    69,    70,    71,    72,    73,    74,    75,    76,    77,    78,    79,    80
    81,    82,    83,    84,    85,    86,    87,    88,    89,    90,    91,    92,    94,    95,    96,    97
    98,    99,   100,   101,   102,   103,   104,   105,   106,   107,   108,   109,   110,   111,   112,   113
   114,   115,   116,   117,   118,   119,   120,   121,   122,   123,   124,   125,   126,   127,   128,   129
   130,   131,   132,   133,   134,   135,   136,   137,   138,   139,   140,   141,   142,   143,   144,   145
   147,   148,   149,   150,   151,   152,   153,   154,   155,   156,   157,   158,   159,   160,   161,   162
   163,   164,   165,   166,   167,   168,   169,   170,   171,   172,   173,   174,   175,   176,   177,   178
   179,   180,   181,   182,   183,   184,   185,   186,   187,   188,   189,   190,   191,   192,   193,   194
   195,   196,   197,   198,   199,   200,   201,   202,   203,   204,   205,   206,   207,   208,   209,   210
   211,   212,   213,   214,   215,   216,   217,   218,   219,   220,   221,   222,   223,   224,   225,   226
   227,   228,   229,   230,   231,   232,   233,   234,   235,   236,   237,   238,   239,   240,   241,   242
   243,   244,   245,   246,   247,   248,   249,   250,   251,   252,   253,   254,   255,   256,   257,   258
   259,   260,   261,   262,   263,   264,   265,   266,   267,   268,   269,   270,   271,   272,   273,   274
   275,   276,   277,   278,   279,   280,   281,   282,   283,   284,   285,   286,   287,   288,   289,   290
   291,   292,   293,   294,   295,   296,   297,   298,   299,   300,   301,   302,   303,   304,   305,   306
   307,   308,   309,   310,   311,   312,   313,   314,   315,   316,   317,   318,   319,   320,   321,   322
** ... 934 like lines cut
*Elset, elset=_G7, internal
     1,     2,     3,     4,     5,     6,     7,     8,     9,    10,    11,    12,    13,    14,    15,    16
    17,    18,    19,    20,    21,    22,    23,    24,    25,    26,    27,    28,    29,    30,    31,    32
    33,    34,    35,    36,    37,    38,    39,    40,    41,    42,    43,    44,    45,    46,    47,    48
    49,    50,    51,    52,    53,    54,    55,    56,    57,    58,    59,    60,    61,    62,    63,    64
    65,    66,    67,    68,    69,    70,    71,    72,    73,    74,    75,    76,    77,    78,    79,    80
    81,    82,    83,    84,    85,    86,    87,    88,    89,    90,    91,    92,    93,    94,    95,    96
    97,    98,    99,   100,   301,   302,   303,   304,   305,   306,   307,   308,   309,   310,   311,   312
   313,   314,   315,   316,   317,   318,   319,   320,   321,   322,   323,   324,   325,   326,   327,   328
   329,   330,   331,   332,   333,   334,   335,   336,   337,   338,   339,   340,   341,   342,   343,   344
   345,   346,   347,   348,   349,   350,   351,   352,   353,   354,   355,   356,   357,   358,   359,   360
   361,   362,   363,   364,   365,   366,   367,   368,   369,   370,   371,   372,   373,   374,   375,   376
   377,   378,   379,   380,   381,   382,   383,   384,   385,   386,   387,   388,   389,   390,   391,   392
   393,   394,   395,   396,   397,   398,   399,   400,   401,   402,   403,   404,   405,   406,   407,   408
   409,   410,   411,   412,   413,   414,   415,   416,   417,   418,   419,   420,   421,   422,   423,   424
   425,   426,   427,   428,   429,   430,   431,   432,   433,   434,   435,   436,   437,   438,   439,   440
   441,   442,   443,   444,   445,   446,   447,   448,   449,   450,   451,   452,   453,   454,   455,   456
   457,   458,   459,   460,   461,   462,   463,   464,   465,   466,   467,   468,   469,   470,   471,   472
   473,   474,   475,   476,   477,   478,   479,   480,   481,   482,   483,   484,   485,   486,   487,   488
   489,   490,   491,   492,   493,   494,   495,   496,   497,   498,   499,   500,   501,   502,   503,   504
   505,   506,   507,   508,   509,   510,   511,   512,   513,   514,   515,   516,   517,   518,   519,   520
** ... 780 like lines cut
** Section: Material-2
*Solid Section, elset=_G7, material=Material-2
,
** Section: Material-1
*Solid Section, elset=_G6, material=Material-1
,
*End Part
**  
**
** ASSEMBLY
**
*Assembly, name=Assembly
**  
*Instance, name=Part-1-1, part=Part-1
*End Instance
**  
*End Assembly
** 
** MATERIALS
** 
*Material, name=Material-1
*Conductivity
1.,
*Material, name=Material-2
*Conductivity
this_kappa2
** ----------------------------------------------------------------
** 
** STEP: Step-1
** 
*Step, name=Step-1, nlgeom=NO
*Heat Transfer, steady state, deltmx=0.
1., 1., 1., 1., 
** 
** BOUNDARY CONDITIONS
** 
** Name: BC-1 Type: Temperature Using Analytical Field: AffineBC
*Boundary
Part-1-1.1, 11, 11, 0.9375
Part-1-1.3, 11, 11, 1.
Part-1-1.4, 11, 11, 1.
Part-1-1.5, 11, 11, 0.875
Part-1-1.8, 11, 11, 1.
Part-1-1.9, 11, 11, 0.8125
Part-1-1.13, 11, 11, 1.
Part-1-1.14, 11, 11, 0.75
Part-1-1.19, 11, 11, 1.
Part-1-1.20, 11, 11, 0.6875
Part-1-1.26, 11, 11, 1.
Part-1-1.27, 11, 11, 0.625
Part-1-1.34, 11, 11, 1.
Part-1-1.35, 11, 11, 0.5625
Part-1-1.43, 11, 11, 1.
Part-1-1.44, 11, 11, 0.5
Part-1-1.53, 11, 11, 1.
Part-1-1.54, 11, 11, 0.4375
Part-1-1.64, 11, 11, 1.
Part-1-1.65, 11, 11, 0.375
** ... 620 like lines cut
** 
** OUTPUT REQUESTS
** 
*Restart, write, frequency=0
** 
** FIELD OUTPUT: F-Output-1
** 
*Output, field, variable=PRESELECT
*Output, history, frequency=0
*End Step
